*SPEF "ieee 1481-1999"
*DESIGN "iiitb_tlc"
*DATE "11:11:11 Fri 11 11, 1111"
*VENDOR "OpenRCX"
*PROGRAM "Parallel Extraction"
*VERSION "1.0"
*DESIGN_FLOW "NAME_SCOPE LOCAL" "PIN_CAP NONE"
*DIVIDER /
*DELIMITER :
*BUS_DELIMITER []
*T_UNIT 1 NS
*C_UNIT 1 PF
*R_UNIT 1 OHM
*L_UNIT 1 HENRY

*NAME_MAP
*1 C
*4 clk
*5 light_farm[0]
*6 light_farm[1]
*7 light_farm[2]
*8 light_highway[0]
*9 light_highway[1]
*10 light_highway[2]
*11 rst_n
*12 _00_
*13 _01_
*14 _02_
*15 _03_
*16 _04_
*17 clknet_0_clk
*18 clknet_1_0__leaf_clk
*19 clknet_1_1__leaf_clk
*20 net1
*21 net2
*22 net3
*23 net4
*24 net5
*25 net6
*26 net7
*27 next_state\[0\]
*28 next_state\[1\]
*29 state\[0\]
*30 state\[1\]
*31 FILLER_0_105
*32 FILLER_0_20
*33 FILLER_0_29
*34 FILLER_0_3
*35 FILLER_0_41
*36 FILLER_0_53
*37 FILLER_0_57
*38 FILLER_0_63
*39 FILLER_0_75
*40 FILLER_0_8
*41 FILLER_0_83
*42 FILLER_0_85
*43 FILLER_0_97
*44 FILLER_10_101
*45 FILLER_10_107
*46 FILLER_10_15
*47 FILLER_10_27
*48 FILLER_10_29
*49 FILLER_10_3
*50 FILLER_10_41
*51 FILLER_10_65
*52 FILLER_10_77
*53 FILLER_10_83
*54 FILLER_10_85
*55 FILLER_10_93
*56 FILLER_11_105
*57 FILLER_11_15
*58 FILLER_11_27
*59 FILLER_11_3
*60 FILLER_11_39
*61 FILLER_11_51
*62 FILLER_11_55
*63 FILLER_11_57
*64 FILLER_11_62
*65 FILLER_11_74
*66 FILLER_11_82
*67 FILLER_12_105
*68 FILLER_12_15
*69 FILLER_12_27
*70 FILLER_12_29
*71 FILLER_12_3
*72 FILLER_12_41
*73 FILLER_12_47
*74 FILLER_12_51
*75 FILLER_12_63
*76 FILLER_12_75
*77 FILLER_12_83
*78 FILLER_12_85
*79 FILLER_12_97
*80 FILLER_13_106
*81 FILLER_13_15
*82 FILLER_13_23
*83 FILLER_13_3
*84 FILLER_13_30
*85 FILLER_13_42
*86 FILLER_13_54
*87 FILLER_13_57
*88 FILLER_13_69
*89 FILLER_13_73
*90 FILLER_13_94
*91 FILLER_14_105
*92 FILLER_14_15
*93 FILLER_14_27
*94 FILLER_14_29
*95 FILLER_14_3
*96 FILLER_14_41
*97 FILLER_14_53
*98 FILLER_14_65
*99 FILLER_14_77
*100 FILLER_14_83
*101 FILLER_14_85
*102 FILLER_14_97
*103 FILLER_15_105
*104 FILLER_15_20
*105 FILLER_15_3
*106 FILLER_15_45
*107 FILLER_15_53
*108 FILLER_15_57
*109 FILLER_15_69
*110 FILLER_15_81
*111 FILLER_15_93
*112 FILLER_16_105
*113 FILLER_16_15
*114 FILLER_16_22
*115 FILLER_16_29
*116 FILLER_16_3
*117 FILLER_16_41
*118 FILLER_16_53
*119 FILLER_16_65
*120 FILLER_16_77
*121 FILLER_16_83
*122 FILLER_16_85
*123 FILLER_16_97
*124 FILLER_17_106
*125 FILLER_17_21
*126 FILLER_17_27
*127 FILLER_17_29
*128 FILLER_17_3
*129 FILLER_17_35
*130 FILLER_17_47
*131 FILLER_17_55
*132 FILLER_17_57
*133 FILLER_17_69
*134 FILLER_17_81
*135 FILLER_17_85
*136 FILLER_17_9
*137 FILLER_17_93
*138 FILLER_17_98
*139 FILLER_1_105
*140 FILLER_1_15
*141 FILLER_1_27
*142 FILLER_1_3
*143 FILLER_1_39
*144 FILLER_1_51
*145 FILLER_1_55
*146 FILLER_1_57
*147 FILLER_1_69
*148 FILLER_1_81
*149 FILLER_1_93
*150 FILLER_2_105
*151 FILLER_2_15
*152 FILLER_2_27
*153 FILLER_2_29
*154 FILLER_2_3
*155 FILLER_2_41
*156 FILLER_2_47
*157 FILLER_2_56
*158 FILLER_2_68
*159 FILLER_2_80
*160 FILLER_2_85
*161 FILLER_2_90
*162 FILLER_2_97
*163 FILLER_3_100
*164 FILLER_3_15
*165 FILLER_3_27
*166 FILLER_3_3
*167 FILLER_3_39
*168 FILLER_3_51
*169 FILLER_3_55
*170 FILLER_3_57
*171 FILLER_3_69
*172 FILLER_3_76
*173 FILLER_3_88
*174 FILLER_4_105
*175 FILLER_4_15
*176 FILLER_4_27
*177 FILLER_4_29
*178 FILLER_4_3
*179 FILLER_4_41
*180 FILLER_4_53
*181 FILLER_4_65
*182 FILLER_4_69
*183 FILLER_4_76
*184 FILLER_4_85
*185 FILLER_4_97
*186 FILLER_5_105
*187 FILLER_5_15
*188 FILLER_5_27
*189 FILLER_5_3
*190 FILLER_5_39
*191 FILLER_5_51
*192 FILLER_5_55
*193 FILLER_5_57
*194 FILLER_5_69
*195 FILLER_5_81
*196 FILLER_5_93
*197 FILLER_6_106
*198 FILLER_6_15
*199 FILLER_6_27
*200 FILLER_6_29
*201 FILLER_6_3
*202 FILLER_6_41
*203 FILLER_6_53
*204 FILLER_6_65
*205 FILLER_6_77
*206 FILLER_6_83
*207 FILLER_6_85
*208 FILLER_6_97
*209 FILLER_7_105
*210 FILLER_7_15
*211 FILLER_7_27
*212 FILLER_7_3
*213 FILLER_7_39
*214 FILLER_7_51
*215 FILLER_7_55
*216 FILLER_7_57
*217 FILLER_7_69
*218 FILLER_7_81
*219 FILLER_7_93
*220 FILLER_8_105
*221 FILLER_8_15
*222 FILLER_8_27
*223 FILLER_8_29
*224 FILLER_8_3
*225 FILLER_8_41
*226 FILLER_8_53
*227 FILLER_8_65
*228 FILLER_8_77
*229 FILLER_8_83
*230 FILLER_8_85
*231 FILLER_8_97
*232 FILLER_9_105
*233 FILLER_9_15
*234 FILLER_9_27
*235 FILLER_9_3
*236 FILLER_9_35
*237 FILLER_9_39
*238 FILLER_9_51
*239 FILLER_9_55
*240 FILLER_9_57
*241 FILLER_9_69
*242 FILLER_9_93
*243 PHY_0
*244 PHY_1
*245 PHY_10
*246 PHY_11
*247 PHY_12
*248 PHY_13
*249 PHY_14
*250 PHY_15
*251 PHY_16
*252 PHY_17
*253 PHY_18
*254 PHY_19
*255 PHY_2
*256 PHY_20
*257 PHY_21
*258 PHY_22
*259 PHY_23
*260 PHY_24
*261 PHY_25
*262 PHY_26
*263 PHY_27
*264 PHY_28
*265 PHY_29
*266 PHY_3
*267 PHY_30
*268 PHY_31
*269 PHY_32
*270 PHY_33
*271 PHY_34
*272 PHY_35
*273 PHY_4
*274 PHY_5
*275 PHY_6
*276 PHY_7
*277 PHY_8
*278 PHY_9
*279 TAP_36
*280 TAP_37
*281 TAP_38
*282 TAP_39
*283 TAP_40
*284 TAP_41
*285 TAP_42
*286 TAP_43
*287 TAP_44
*288 TAP_45
*289 TAP_46
*290 TAP_47
*291 TAP_48
*292 TAP_49
*293 TAP_50
*294 TAP_51
*295 TAP_52
*296 TAP_53
*297 TAP_54
*298 TAP_55
*299 TAP_56
*300 TAP_57
*301 TAP_58
*302 TAP_59
*303 TAP_60
*304 TAP_61
*305 TAP_62
*306 TAP_63
*307 TAP_64
*308 TAP_65
*309 _05_
*310 _06_
*311 _07_
*312 _08_
*313 _09_
*314 _10_
*315 _11_
*316 _12_
*317 _14_
*318 _15_
*319 _16_
*320 _17_
*321 _18_
*322 _19_
*323 clkbuf_0_clk
*324 clkbuf_1_0__f_clk
*325 clkbuf_1_1__f_clk
*326 input1
*327 input2
*328 output3
*329 output4
*330 output5
*331 output6
*332 output7

*PORTS
C I
clk I
light_farm[0] O
light_farm[1] O
light_farm[2] O
light_highway[0] O
light_highway[1] O
light_highway[2] O
rst_n I

*D_NET *1 0.00134176
*CONN
*P C I
*I *326:A I *D sky130_fd_sc_hd__clkbuf_1
*CAP
1 C 0.000670881
2 *326:A 0.000670881
*RES
1 C *326:A 28.4071 
*END

*D_NET *4 0.00432106
*CONN
*P clk I
*I *323:A I *D sky130_fd_sc_hd__clkbuf_16
*CAP
1 clk 0.000869937
2 *323:A 0.00129059
3 *4:10 0.00216053
4 *323:A *16:8 0
5 *323:A *21:12 0
*RES
1 clk *4:10 27.9821 
2 *4:10 *323:A 43.0679 
*END

*D_NET *5 0.000951112
*CONN
*P light_farm[0] O
*I *328:X O *D sky130_fd_sc_hd__buf_2
*CAP
1 light_farm[0] 0.000475556
2 *328:X 0.000475556
3 light_farm[0] *22:11 0
*RES
1 *328:X light_farm[0] 24.4786 
*END

*D_NET *6 0.000534752
*CONN
*P light_farm[1] O
*I *329:X O *D sky130_fd_sc_hd__buf_2
*CAP
1 light_farm[1] 0.000267376
2 *329:X 0.000267376
*RES
1 *329:X light_farm[1] 18.4111 
*END

*D_NET *8 0.00101277
*CONN
*P light_highway[0] O
*I *330:X O *D sky130_fd_sc_hd__buf_2
*CAP
1 light_highway[0] 0.000506383
2 *330:X 0.000506383
*RES
1 *330:X light_highway[0] 24.925 
*END

*D_NET *9 0.000655335
*CONN
*P light_highway[1] O
*I *331:X O *D sky130_fd_sc_hd__buf_2
*CAP
1 light_highway[1] 0.000327667
2 *331:X 0.000327667
*RES
1 *331:X light_highway[1] 20.1605 
*END

*D_NET *10 0.00118726
*CONN
*P light_highway[2] O
*I *332:X O *D sky130_fd_sc_hd__buf_2
*CAP
1 light_highway[2] 0.000593632
2 *332:X 0.000593632
*RES
1 *332:X light_highway[2] 26.9429 
*END

*D_NET *11 0.000811932
*CONN
*P rst_n I
*I *327:A I *D sky130_fd_sc_hd__clkbuf_1
*CAP
1 rst_n 0.000405966
2 *327:A 0.000405966
*RES
1 rst_n *327:A 20.4675 
*END

*D_NET *12 0.00823375
*CONN
*I *315:B I *D sky130_fd_sc_hd__and2_1
*I *310:B I *D sky130_fd_sc_hd__nor2_1
*I *314:B I *D sky130_fd_sc_hd__xor2_1
*I *317:A_N I *D sky130_fd_sc_hd__and2b_1
*I *319:A I *D sky130_fd_sc_hd__clkbuf_1
*I *313:A1 I *D sky130_fd_sc_hd__o21ba_1
*I *311:B I *D sky130_fd_sc_hd__and2b_1
*I *309:X O *D sky130_fd_sc_hd__clkbuf_2
*CAP
1 *315:B 2.56688e-05
2 *310:B 0
3 *314:B 0.000619613
4 *317:A_N 2.56688e-05
5 *319:A 0.000515515
6 *313:A1 0.000344389
7 *311:B 0
8 *309:X 8.28804e-05
9 *12:34 0.00107901
10 *12:30 0.00100891
11 *12:27 0.00164492
12 *12:23 0.00107113
13 *12:11 0.00125872
14 *12:6 0.000557319
15 *313:A1 *313:B1_N 0
16 *314:B *314:A 0
17 *314:B *324:A 0
18 *314:B *29:24 0
19 *314:B *30:10 0
20 *315:B *315:A 0
21 *319:A *313:B1_N 0
22 *319:A *25:7 0
23 *12:23 *29:15 0
24 *12:27 *29:24 0
25 *12:30 *29:24 0
26 *12:30 *29:26 0
27 *12:34 *313:B1_N 0
*RES
1 *309:X *12:6 15.7464 
2 *12:6 *12:11 14.3214 
3 *12:11 *311:B 9.3 
4 *12:11 *12:23 26.3571 
5 *12:23 *12:27 5.48214 
6 *12:27 *12:30 21.9286 
7 *12:30 *12:34 9.48214 
8 *12:34 *313:A1 16.55 
9 *12:34 *319:A 20.1214 
10 *12:30 *317:A_N 14.3357 
11 *12:27 *314:B 31.4786 
12 *12:23 *310:B 9.3 
13 *12:6 *315:B 14.3357 
*END

*D_NET *13 0.000931062
*CONN
*I *312:A I *D sky130_fd_sc_hd__clkbuf_1
*I *311:X O *D sky130_fd_sc_hd__and2b_1
*CAP
1 *312:A 0.000465531
2 *311:X 0.000465531
*RES
1 *311:X *312:A 37.475 
*END

*D_NET *14 0.00477873
*CONN
*I *316:A I *D sky130_fd_sc_hd__clkbuf_1
*I *315:X O *D sky130_fd_sc_hd__and2_1
*CAP
1 *316:A 0.00145845
2 *315:X 0.000930921
3 *14:7 0.00238937
4 *316:A *24:8 0
5 *14:7 *321:RESET_B 0
6 *14:7 *29:5 0
*RES
1 *315:X *14:7 33.2286 
2 *14:7 *316:A 46.675 
*END

*D_NET *15 0.000948007
*CONN
*I *318:A I *D sky130_fd_sc_hd__clkbuf_1
*I *317:X O *D sky130_fd_sc_hd__and2b_1
*CAP
1 *318:A 0.000474004
2 *317:X 0.000474004
*RES
1 *317:X *318:A 37.85 
*END

*D_NET *16 0.00366989
*CONN
*I *320:A I *D sky130_fd_sc_hd__clkbuf_1
*I *319:X O *D sky130_fd_sc_hd__clkbuf_1
*CAP
1 *320:A 0.00110804
2 *319:X 0.000726909
3 *16:8 0.00183494
4 *320:A *322:CLK 0
5 *320:A *325:A 0
6 *323:A *16:8 0
*RES
1 *319:X *16:8 34.8179 
2 *16:8 *320:A 32.425 
*END

*D_NET *17 0.00162039
*CONN
*I *324:A I *D sky130_fd_sc_hd__clkbuf_16
*I *325:A I *D sky130_fd_sc_hd__clkbuf_16
*I *323:X O *D sky130_fd_sc_hd__clkbuf_16
*CAP
1 *324:A 0.00030118
2 *325:A 0.000212393
3 *323:X 0.000296619
4 *17:6 0.000810193
5 *324:A *314:A 0
6 *314:B *324:A 0
7 *320:A *325:A 0
*RES
1 *323:X *17:6 20.6036 
2 *17:6 *325:A 18.3357 
3 *17:6 *324:A 20.0857 
*END

*D_NET *18 0.00116866
*CONN
*I *321:CLK I *D sky130_fd_sc_hd__dfrtp_2
*I *324:X O *D sky130_fd_sc_hd__clkbuf_16
*CAP
1 *321:CLK 0.000584329
2 *324:X 0.000584329
3 *321:CLK *321:D 0
4 *321:CLK *321:RESET_B 0
*RES
1 *324:X *321:CLK 40.725 
*END

*D_NET *19 0.00086929
*CONN
*I *322:CLK I *D sky130_fd_sc_hd__dfrtp_1
*I *325:X O *D sky130_fd_sc_hd__clkbuf_16
*CAP
1 *322:CLK 0.000434645
2 *325:X 0.000434645
3 *320:A *322:CLK 0
*RES
1 *325:X *322:CLK 37.0286 
*END

*D_NET *20 0.00220713
*CONN
*I *313:A2 I *D sky130_fd_sc_hd__o21ba_1
*I *326:X O *D sky130_fd_sc_hd__clkbuf_1
*CAP
1 *313:A2 0
2 *326:X 0.00110357
3 *20:13 0.00110357
4 *20:13 *313:B1_N 0
5 *20:13 *25:7 0
*RES
1 *326:X *20:13 41.6393 
2 *20:13 *313:A2 9.3 
*END

*D_NET *21 0.00458736
*CONN
*I *321:RESET_B I *D sky130_fd_sc_hd__dfrtp_2
*I *322:RESET_B I *D sky130_fd_sc_hd__dfrtp_1
*I *327:X O *D sky130_fd_sc_hd__clkbuf_1
*CAP
1 *321:RESET_B 0.00148964
2 *322:RESET_B 0
3 *327:X 0.000804034
4 *21:12 0.00229368
5 *321:RESET_B *321:D 0
6 *321:CLK *321:RESET_B 0
7 *323:A *21:12 0
8 *14:7 *321:RESET_B 0
*RES
1 *327:X *21:12 31.5857 
2 *21:12 *322:RESET_B 4.5 
3 *21:12 *321:RESET_B 36.4732 
*END

*D_NET *22 0.00278201
*CONN
*I *328:A I *D sky130_fd_sc_hd__buf_2
*I *312:X O *D sky130_fd_sc_hd__clkbuf_1
*CAP
1 *328:A 0
2 *312:X 0.001391
3 *22:11 0.001391
4 light_farm[0] *22:11 0
*RES
1 *312:X *22:11 48.2821 
2 *22:11 *328:A 9.3 
*END

*D_NET *23 0.00413178
*CONN
*I *329:A I *D sky130_fd_sc_hd__buf_2
*I *316:X O *D sky130_fd_sc_hd__clkbuf_1
*CAP
1 *329:A 0.00152856
2 *316:X 0.000537333
3 *23:7 0.00206589
*RES
1 *316:X *23:7 25.0143 
2 *23:7 *329:A 48.5321 
*END

*D_NET *24 0.00233575
*CONN
*I *330:A I *D sky130_fd_sc_hd__buf_2
*I *310:Y O *D sky130_fd_sc_hd__nor2_1
*CAP
1 *330:A 0
2 *310:Y 0.00116788
3 *24:8 0.00116788
4 *316:A *24:8 0
*RES
1 *310:Y *24:8 44.8357 
2 *24:8 *330:A 9.3 
*END

*D_NET *25 0.00631235
*CONN
*I *331:A I *D sky130_fd_sc_hd__buf_2
*I *318:X O *D sky130_fd_sc_hd__clkbuf_1
*CAP
1 *331:A 0
2 *318:X 0.00156066
3 *25:10 0.00159551
4 *25:7 0.00315617
5 *25:7 *313:B1_N 0
6 *319:A *25:7 0
7 *20:13 *25:7 0
*RES
1 *318:X *25:7 46.3714 
2 *25:7 *25:10 40.75 
3 *25:10 *331:A 9.3 
*END

*D_NET *26 0.00176352
*CONN
*I *332:A I *D sky130_fd_sc_hd__buf_2
*I *320:X O *D sky130_fd_sc_hd__clkbuf_1
*CAP
1 *332:A 0.000881762
2 *320:X 0.000881762
*RES
1 *320:X *332:A 47.4929 
*END

*D_NET *27 0.00302938
*CONN
*I *321:D I *D sky130_fd_sc_hd__dfrtp_2
*I *313:X O *D sky130_fd_sc_hd__o21ba_1
*CAP
1 *321:D 0.000127916
2 *313:X 0.00138677
3 *27:10 0.00151469
4 *321:CLK *321:D 0
5 *321:RESET_B *321:D 0
*RES
1 *313:X *27:10 49.7286 
2 *27:10 *321:D 12.0321 
*END

*D_NET *28 0.000432094
*CONN
*I *322:D I *D sky130_fd_sc_hd__dfrtp_1
*I *314:X O *D sky130_fd_sc_hd__xor2_1
*CAP
1 *322:D 0.000216047
2 *314:X 0.000216047
*RES
1 *314:X *322:D 32.2429 
*END

*D_NET *29 0.00719204
*CONN
*I *315:A I *D sky130_fd_sc_hd__and2_1
*I *311:A_N I *D sky130_fd_sc_hd__and2b_1
*I *314:A I *D sky130_fd_sc_hd__xor2_1
*I *317:B I *D sky130_fd_sc_hd__and2b_1
*I *313:B1_N I *D sky130_fd_sc_hd__o21ba_1
*I *310:A I *D sky130_fd_sc_hd__nor2_1
*I *321:Q O *D sky130_fd_sc_hd__dfrtp_2
*CAP
1 *315:A 0.000216687
2 *311:A_N 0
3 *314:A 0.000518509
4 *317:B 0
5 *313:B1_N 0.000717415
6 *310:A 0
7 *321:Q 2.41714e-05
8 *29:26 0.00132133
9 *29:24 0.00150235
10 *29:15 0.00132551
11 *29:8 0.0011354
12 *29:5 0.000430668
13 *29:15 *30:10 0
14 *29:24 *30:10 0
15 *313:A1 *313:B1_N 0
16 *314:B *314:A 0
17 *314:B *29:24 0
18 *315:B *315:A 0
19 *319:A *313:B1_N 0
20 *324:A *314:A 0
21 *12:23 *29:15 0
22 *12:27 *29:24 0
23 *12:30 *29:24 0
24 *12:30 *29:26 0
25 *12:34 *313:B1_N 0
26 *14:7 *29:5 0
27 *20:13 *313:B1_N 0
28 *25:7 *313:B1_N 0
*RES
1 *321:Q *29:5 9.83571 
2 *29:5 *29:8 8.875 
3 *29:8 *29:15 24.625 
4 *29:15 *310:A 9.3 
5 *29:15 *29:24 12.7143 
6 *29:24 *29:26 13.7857 
7 *29:26 *313:B1_N 29.0857 
8 *29:26 *317:B 13.8 
9 *29:24 *314:A 24.6214 
10 *29:8 *311:A_N 13.8 
11 *29:5 *315:A 13.8536 
*END

*D_NET *30 0.00355506
*CONN
*I *309:A I *D sky130_fd_sc_hd__clkbuf_2
*I *322:Q O *D sky130_fd_sc_hd__dfrtp_1
*CAP
1 *309:A 0.000576692
2 *322:Q 0.00120084
3 *30:10 0.00177753
4 *314:B *30:10 0
5 *29:15 *30:10 0
6 *29:24 *30:10 0
*RES
1 *322:Q *30:10 44.2643 
2 *30:10 *309:A 21.3357 
*END
